McPAT (version 1.3 of Feb, 2015) is computing the target processor...
 
XML Parsing error inside file 'Results2_xmls/401/L2_size/L1d_4.xml'.
Error: File not found
At line 0, column 0.
